ELEM E N O H C AR
END

SPECIES


! Air chemistry species

E  N2+  O2+  C2H4+
N2(A3Sigma)  N2(B3Pi)  N2(ap1Sigma)  N2(C3Pi)  O(1D)  O(1S)
N2  O2  N  O  NO  
AR 


!Hydrocarbon species

H         H2        OH        HO2       H2O2     H2O          
CH4       CH3       CH2       CH        CH3O     CH2O     HCO     CO     CO2                          
C2H4      C2H3      C2H2      C2H       HCCO      
C2H5

END





REACTIONS



!*************************************************************************************************************************************
! 		Following reactions are from Z66
!*************************************************************************************************************************************

!C2H5
C2H4 + H + M => C2H5 + M   4.17e+10      0      11030
C2H5 + H => CH3 + CH3      1.5e+13      0      0


!C2H4
C2H4 => C2H3 + H           1.0e+12      0      48200			
C2H4 + H => C2H5           1.8e+12      1      9400
C2H4 + O => HCO + CH3      3.31e+12      0      1130			
HCO + CH3 => C2H4 + O      1.58e+11      0      31180			
C2H4 + OH => C2H3 + H2O    4.79e+12      0      1230			
C2H3 + H2O => C2H4 + OH    1.2e+12      0      14000			
C2H4 + CH3 => C2H3 + CH4   1e+13      0      13000
C2H3 + CH4 => C2H4 + CH3   3.02e+13      0      12580
C2H4 + H => C2H3 + H2      5.0e+12      0      5000			

!C2H3
C2H2 + H + M => C2H3 + M   1.23e+11      1      10360			
C2H3 + H => C2H2 + H2      2e+13      0      2500			
C2H3 + OH => C2H2 + H2O    7.0e+14      0      1100			
C2H3 => C2H + H2           1.8e+12      0      44800

!C2H2
C2H + H + M => C2H2 + M    1.1e+09      1      770
C2H2 + H => C2H + H2       2e+14      0      19000
C2H2 + OH => C2H + H2O     8.0e+12      0      5000			
C2H + H2O => C2H2 + OH     5.37e+12      0      16360			
C2H2 + O => C2H + OH       3.24e+15      0.6      12000			
C2H + OH => C2H2 + O       2.95e+14      0.6      910			


!C2H
C2H + O2 => HCO + CO       1e+13      0      7000			
HCO + CO => C2H + O2       8.51e+12      0      138400			
C2H + OH => HCO + CH       8.0e+12      0      5000

!BASE C/H/O
H + O2 => OH + O           5.0E+14      0      16800			
OH + O => H + O2           1.20E+13      0      690			
O + H2 => OH + H           1.80000E+10      1      8826			
OH + H => O + H2           8.00000E+09      1      6760			
H2 + OH => H2O + H         1.17000E+09      1.3      3626		
H2O + H => H2 + OH         6.0E+09      1.3      18588			
OH + OH => O + H2O         6.00000E+08      1.3      0			
O + H2O => OH + OH         4.0E+09      1.3      17029			
H + O2 + M => HO2 + M      2.5E+18      -0.8      0     		
  CH4/ 6.5/ CO/ 0.75/ CO2/ 1.5/ H2/ 1.0/ H2O/ 6.5/ N2/ 0.4/ O2/ 0.4/
H + HO2 => OH + OH         1.50000E+14      0      1004			
H + HO2 => H2 + O2         2.50000E+13      0      700			
OH + HO2 => H2O + O2       2.00000E+13      0      1000			
CO + OH => CO2 + H         1.51000E+07      1.3      -758		
CO2 + H => CO + OH         1.57000E+09      1.3      19800		

! Reactions from Z66 converted to Chemkin format, using Lindemann theory
CH4 (+ M) => CH3 + H (+ M)    6.30000E+14      0      104000     	
			 LOW/ 1.00000E+17      0      86000 /    
C2H4/ 3.0/ CH4/ 6.5/ CO/ 0.75/ CO2/ 1.5/ H2/ 1.0/ H2O/ 6.5/ N2/ 0.4/ O2/ 0.4/

CH3 + H (+ M) => CH4 (+ M)     5.20000E+12      0      -1310     	
			  LOW/ 8.25000E+14      0      -19310 /    
C2H4/ 3.0/ CH4/ 6.5/ CO/ 0.75/ CO2/ 1.5/ H2/ 1.0/ H2O/ 6.5/ N2/ 0.4/ O2/ 0.4


CH4 + H => CH3 + H2        2.20000E+04      3      8750			
CH3 + H2 => CH4 + H        9.57000E+02      3      8750			
CH4 + OH => CH3 + H2O      1.60000E+06      2.1      2460		
CH3 + H2O => CH4 + OH      3.02000E+05      2.1      17422		
CH3 + O => CH2O + H        6.80000E+13      0      0			
CH2O + H => HCO + H2       5.0E+13      0      3991			
CH2O + OH => HCO + H2O     1.4E+14      0      1100			
HCO + H => CO + H2         4.00000E+13      0      0			
HCO + M => CO + H + M      1.60000E+14      0      14700		
CH3 + O2 => CH3O + O       3.0E+13      0      25652			
CH3O + H => CH2O + H2      2.00000E+13      0      0			
CH3O + M => CH2O + H + M   2.40000E+13      0      28812		
HO2 + HO2 => H2O2 + O2     2.0E+14      0      0			
H2O2 + M => OH + OH + M    1.30000E+17      0      45500
OH + OH + M => H2O2 + M    9.86000E+14      0      -5070		
H2O2 + OH => H2O + HO2     1.00000E+13      0      1800			
H2O + HO2 => H2O2 + OH     2.86000E+13      0      32790		
OH + H + M => H2O + M      2.20000E+22      -2      0			
H + H + M => H2 + M        1.80000E+18      -1      0			
CH3 + OH => CH2 + H2O      7.6E+06      2.0      5000			
CH2 + O => CO + H2         3.0E+13      0      0			
CH2 + OH => CH + H2O       1.13E+07      2.0      3000			
CH + O => CO + H           5.7E+13      0      0			
CH + OH => HCO + H         3.0E+13      0      0			
CH + O2 => HCO + O         3.3E+13      0      0			
CH + CO2 => HCO + CO       8.4E+13      0      200			

END
